*HEADING
cubit(/Users/cbh/autotwin/mesh/tests/files/sphere.inp): 08/05/2022: 17:55:04
version: 16.06.0
**
********************************** P A R T S **********************************
*PART, NAME=Part-Default
**
********************************** N O D E S **********************************
*NODE, NSET=ALLNODES
       1,   -4.627492e-01,   -8.242895e-02,   -1.711394e-01
       2,   -4.669542e-01,   -4.570564e-02,   -1.756126e-01
       3,   -4.790756e-01,   -4.569578e-02,   -1.387217e-01
       4,   -4.705755e-01,   -9.525286e-02,   -1.420892e-01
       5,   -4.499376e-01,   -9.747504e-02,   -1.930989e-01
       6,   -4.502327e-01,   -4.566583e-02,   -2.070393e-01
       7,   -4.683848e-01,   -2.345449e-06,   -1.781166e-01
       8,   -4.808154e-01,   -3.580593e-07,   -1.390508e-01
       9,   -4.861365e-01,   -4.839901e-02,   -9.662700e-02
      10,   -4.818765e-01,   -9.429767e-02,   -9.435394e-02
      11,   -4.568750e-01,   -1.137025e-01,   -1.620637e-01
      12,   -4.641830e-01,   -1.322935e-01,   -1.323527e-01
      13,   -4.530384e-01,   -1.481606e-01,   -1.482155e-01
      14,   -4.373814e-01,   -1.463774e-01,   -1.930799e-01
      15,   -4.216339e-01,   -1.455646e-01,   -2.268208e-01
      16,   -4.258090e-01,   -9.708164e-02,   -2.427433e-01
      17,   -4.219171e-01,   -1.899659e-01,   -1.900203e-01
      18,   -4.373648e-01,   -1.930187e-01,   -1.464268e-01
      19,   -4.144194e-01,   -1.725426e-01,   -2.210080e-01
      20,   -4.567923e-01,   -1.619781e-01,   -1.137340e-01
** ... 7711 like lines cut
**
********************************** E L E M E N T S ****************************
*ELEMENT, TYPE=C3D8R, ELSET=EB1
       1,    2068,    2066,    2040,    2038,    2029,    2064,     540,    2032
       2,    2066,    2062,    2042,    2040,    2064,    2060,     541,     540
       3,    2038,    2040,    2039,    2037,    2032,     540,     542,     543
       4,    2029,    2064,     540,    2032,     544,     545,     546,     547
       5,    2064,    2060,     541,     540,     545,     548,     549,     546
       6,    2028,    2029,    2032,    2030,     550,     544,     547,     551
       7,    2032,     540,     542,     543,     547,     546,     552,     553
       8,    2027,    2063,    2064,    2029,    2023,     554,     545,     544
       9,     544,     545,     546,     547,     555,     556,     557,     558
      10,     545,     548,     549,     546,     556,     559,     560,     557
      11,     550,     544,     547,     551,     561,     555,     558,     562
      12,     547,     546,     552,     553,     558,     557,     563,     564
      13,    2023,     554,     545,     544,     565,     566,     556,     555
      14,     555,     556,     557,     558,     567,     568,     569,     570
      15,     556,     559,     560,     557,     568,     571,     572,     569
      16,     561,     555,     558,     562,     573,     567,     570,     574
      17,     558,     557,     563,     564,     570,     569,     575,     576
      18,     565,     566,     556,     555,     577,     578,     568,     567
      19,     567,     568,     569,     570,     579,     580,     581,     582
      20,     568,     571,     572,     569,     580,     583,     584,     581
** ... 6652 like lines cut
**
********************************** P R O P E R T I E S ************************
*SOLID SECTION, ELSET=EB1, MATERIAL=Default-Steel
**
*END PART
**
**
**
********************************** E N D   P A R T S **********************************
**
**
********************************** A S S E M B L Y ************************************
**
*ASSEMBLY, NAME=ASSEMBLY1
**
*INSTANCE, NAME=Part-Default_1, PART=Part-Default
*END INSTANCE
**
*END ASSEMBLY
**
**
**
*MATERIAL, NAME = Default-Steel
*ELASTIC, TYPE=ISOTROPIC
2.068000e+05, 2.900000e-01
*DENSITY
7.000000e-06
*CONDUCTIVITY,TYPE=ISO
4.500000e-02
*SPECIFIC HEAT
5.000000e+02
**
**
************************************** H I S T O R Y *************************************
**
*PREPRINT
**
**************************************** S T E P 1 ***************************************
*STEP,INC=100,NAME=Default Set
**
*STATIC
1, 1, 1e-05, 1
**
**
**
**
*END STEP
