*HEADING
cubit(s/chovey/Dropbox/scratch/2022-09-17/sphere_dcell_0010.inp): 09/17/2022: 09
version: 16.06.0
**
********************************** P A R T S **********************************
*PART, NAME=Part-Default
**
********************************** N O D E S **********************************
*NODE, NSET=ALLNODES
       1,   -3.813357e-01,   -2.236986e-01,   -2.236838e-01
       2,   -4.149187e-01,   -1.399746e-01,   -2.548473e-01
       3,   -4.681870e-01,   -1.401712e-01,   -1.401687e-01
       4,   -4.149334e-01,   -2.548593e-01,   -1.399703e-01
       5,   -2.958663e-01,   -2.958628e-01,   -2.958550e-01
       6,   -3.436233e-01,   -1.376358e-01,   -3.436271e-01
       7,   -4.322380e-01,    2.053847e-06,   -2.641698e-01
       8,   -4.826724e-01,    3.056555e-07,   -1.422673e-01
       9,   -4.827511e-01,   -1.422932e-01,    3.574674e-06
      10,   -4.323625e-01,   -2.642514e-01,    6.400053e-06
      11,   -3.436644e-01,   -3.436676e-01,   -1.376434e-01
      12,   -3.534248e-01,   -3.534259e-01,    6.507344e-06
      13,   -2.235711e-01,   -3.810833e-01,   -2.235424e-01
      14,   -2.547745e-01,   -4.147850e-01,   -1.399193e-01
      15,   -1.398917e-01,   -4.146721e-01,   -2.546978e-01
      16,   -1.376150e-01,   -3.435782e-01,   -3.435705e-01
      17,   -2.642028e-01,   -4.322754e-01,    6.132469e-06
      18,   -1.401251e-01,   -4.680382e-01,   -1.401226e-01
      19,   -1.422746e-01,   -4.827022e-01,    2.231769e-06
      20,   -2.728324e-07,   -4.826622e-01,   -1.422591e-01
** ... 449 like lines cut
**
********************************** E L E M E N T S ****************************
*ELEMENT, TYPE=C3D8R, ELSET=EB1
       1,     189,     187,     192,     196,     165,     176,     110,     166
       2,     187,     188,     191,     192,     176,     185,     111,     110
       3,     196,     192,     195,     197,     166,     110,     112,     198
       4,     165,     176,     110,     166,     171,     113,     114,     115
       5,     176,     185,     111,     110,     113,     116,     117,     114
       6,     161,     165,     166,     162,     164,     171,     115,     163
       7,     166,     110,     112,     198,     115,     114,     118,     119
       8,     173,     175,     176,     165,     174,     178,     113,     171
       9,     171,     113,     114,     115,     172,     120,     121,     122
      10,     113,     116,     117,     114,     120,     123,     124,     121
      11,     164,     171,     115,     163,     170,     172,     122,     169
      12,     115,     114,     118,     119,     122,     121,     125,     126
      13,     174,     178,     113,     171,     177,     179,     120,     172
      14,     178,     180,     116,     113,     179,     182,     123,     120
      15,     180,     183,     128,     116,     182,     209,     127,     123
      16,     175,     181,     185,     176,     178,     180,     116,     113
      17,     181,     184,     186,     185,     180,     183,     128,     116
      18,     184,     214,     215,     186,     183,     211,     212,     128
      19,     185,     186,     129,     111,     116,     128,     130,     117
      20,     186,     215,     218,     129,     128,     212,     131,     130
** ... 332 like lines cut
**
********************************** P R O P E R T I E S ************************
*SOLID SECTION, ELSET=EB1, MATERIAL=Default-Steel
**
*END PART
**
**
**
********************************** E N D   P A R T S **********************************
**
**
********************************** A S S E M B L Y ************************************
**
*ASSEMBLY, NAME=ASSEMBLY1
**
*INSTANCE, NAME=Part-Default_1, PART=Part-Default
*END INSTANCE
**
*END ASSEMBLY
**
**
**
*MATERIAL, NAME = Default-Steel
*ELASTIC, TYPE=ISOTROPIC
2.068000e+05, 2.900000e-01
*DENSITY
7.000000e-06
*CONDUCTIVITY,TYPE=ISO
4.500000e-02
*SPECIFIC HEAT
5.000000e+02
**
**
************************************** H I S T O R Y *************************************
**
*PREPRINT
**
**************************************** S T E P 1 ***************************************
*STEP,INC=100,NAME=Default Set
**
*STATIC
1, 1, 1e-05, 1
**
**
**
**
*END STEP
