*HEADING
cubit(/Users/chovey/autotwin/mesh/tests/files/two_spheres.inp): 03/13/2023: 11:4
version: 16.10.1
**
********************************** P A R T S **********************************
*PART, NAME=Part-Default
**
********************************** N O D E S **********************************
*NODE, NSET=ALLNODES
       1,   -3.813357e-01,   -2.236986e-01,   -2.236838e-01
       2,   -4.149187e-01,   -1.399746e-01,   -2.548473e-01
       3,   -4.681870e-01,   -1.401712e-01,   -1.401687e-01
       4,   -4.149334e-01,   -2.548593e-01,   -1.399703e-01
       5,   -2.958663e-01,   -2.958628e-01,   -2.958550e-01
       6,   -3.436233e-01,   -1.376358e-01,   -3.436271e-01
       7,   -4.322380e-01,    2.053847e-06,   -2.641698e-01
       8,   -4.826724e-01,    3.056555e-07,   -1.422673e-01
       9,   -4.827511e-01,   -1.422932e-01,    3.574674e-06
      10,   -4.323625e-01,   -2.642514e-01,    6.400053e-06
      11,   -3.436644e-01,   -3.436676e-01,   -1.376434e-01
      12,   -3.534248e-01,   -3.534259e-01,    6.507344e-06
      13,   -2.235711e-01,   -3.810833e-01,   -2.235424e-01
      14,   -2.547745e-01,   -4.147850e-01,   -1.399193e-01
      15,   -1.398917e-01,   -4.146721e-01,   -2.546978e-01
      16,   -1.376150e-01,   -3.435782e-01,   -3.435705e-01
      17,   -2.642028e-01,   -4.322754e-01,    6.132469e-06
      18,   -1.401251e-01,   -4.680382e-01,   -1.401226e-01
      19,   -1.422746e-01,   -4.827022e-01,    2.231769e-06
      20,   -2.728324e-07,   -4.826622e-01,   -1.422591e-01
** ... 1926 like lines cut
**
********************************** E L E M E N T S ****************************
*ELEMENT, TYPE=C3D8R, ELSET=PART-DEFAULT_1_EB1
    1409,     189,     187,     192,     196,     165,     176,     110,     166
    1410,     187,     188,     191,     192,     176,     185,     111,     110
    1411,     196,     192,     195,     197,     166,     110,     112,     198
    1412,     165,     176,     110,     166,     171,     113,     114,     115
    1413,     176,     185,     111,     110,     113,     116,     117,     114
    1414,     161,     165,     166,     162,     164,     171,     115,     163
    1415,     166,     110,     112,     198,     115,     114,     118,     119
    1416,     173,     175,     176,     165,     174,     178,     113,     171
    1417,     171,     113,     114,     115,     172,     120,     121,     122
    1418,     113,     116,     117,     114,     120,     123,     124,     121
    1419,     164,     171,     115,     163,     170,     172,     122,     169
    1420,     115,     114,     118,     119,     122,     121,     125,     126
    1421,     174,     178,     113,     171,     177,     179,     120,     172
    1422,     178,     180,     116,     113,     179,     182,     123,     120
    1423,     180,     183,     128,     116,     182,     209,     127,     123
    1424,     175,     181,     185,     176,     178,     180,     116,     113
    1425,     181,     184,     186,     185,     180,     183,     128,     116
    1426,     184,     214,     215,     186,     183,     211,     212,     128
    1427,     185,     186,     129,     111,     116,     128,     130,     117
    1428,     186,     215,     218,     129,     128,     212,     131,     130
** ... 332 like lines cut
*ELEMENT, TYPE=C3D8R, ELSET=EB2
       1,    1251,    1252,    1253,    1242,    1250,    1254,     906,    1248
       2,    1252,    1258,    1260,    1253,    1254,    1257,    1261,     906
       3,    1242,    1253,    1263,    1243,    1248,     906,     907,     908
       4,    1250,    1254,     906,    1248,    1255,    1256,     909,     910
       5,    1254,    1257,    1261,     906,    1256,    1259,     911,     909
       6,    1249,    1250,    1248,    1241,    1291,    1255,     910,    1247
       7,    1248,     906,     907,     908,     910,     909,     912,     913
       8,     908,     907,     918,    1271,     913,     912,     915,     916
       9,     907,     919,    1280,     918,     912,     914,     917,     915
      10,    1240,     908,    1271,    1245,    1246,     913,     916,    1292
      11,    1271,     918,    1274,    1272,     916,     915,    1276,    1275
      12,    1243,    1263,    1267,    1268,     908,     907,     918,    1271
      13,    1263,    1262,    1266,    1267,     907,     919,    1280,     918
      14,    1239,    1243,    1268,    1244,    1240,     908,    1271,    1245
      15,    1268,    1267,    1269,    1270,    1271,     918,    1274,    1272
      16,    1267,    1266,    1278,    1269,     918,    1280,    1277,    1274
      17,     918,    1280,    1277,    1274,     915,     917,    1279,    1276
      18,    1280,    1281,    1282,    1277,     917,    1285,    1294,    1279
      19,     919,    1284,    1281,    1280,     914,    1286,    1285,     917
      20,    1261,    1287,    1284,     919,     911,    1288,    1286,     914
** ... 132 like lines cut
*ELEMENT, TYPE=C3D8R, ELSET=EB3
     153,     979,     974,    1034,    1036,     977,     972,     788,     992
     154,     974,     975,    1032,    1034,     972,     971,     789,     788
     155,    1036,    1034,    1035,    1037,     992,     788,     790,     993
     156,     977,     972,     788,     992,     980,     791,     792,     793
     157,     972,     971,     789,     788,     791,     794,     795,     792
     158,     981,     977,     992,     987,     982,     980,     793,     986
     159,     992,     788,     790,     993,     793,     792,     796,     797
     160,     976,     966,     972,     977,     978,     967,     791,     980
     161,     980,     791,     792,     793,     798,    1194,    1185,    1181
     162,     791,     794,     795,     792,    1194,    1195,    1196,    1185
     163,     982,     980,     793,     986,     935,     798,    1181,     799
     164,     793,     792,     796,     797,    1181,    1185,    1186,    1182
     165,     978,     967,     791,     980,     942,     800,    1194,     798
     166,     798,    1194,    1185,    1181,    1192,    1193,    1191,    1184
     167,     935,     798,    1181,     799,     801,    1192,    1184,     802
     168,     942,     800,    1194,     798,     803,     804,    1193,    1192
     169,     800,     805,    1195,    1194,     804,     806,    1197,    1193
     170,     934,     942,     798,     935,     937,     803,    1192,     801
     171,     941,     949,     800,     942,     943,     807,     804,     803
     172,     803,     804,    1193,    1192,     808,     809,    1198,    1234
** ... 1028 like lines cut
**
********************************** N O D E S E T S **********************************
*NSET, NSET=NS_PART-DEFAULT_1_NS_ALLNODES
       1,       2,       3,       4,       5,       6,
       7,       8,       9,      10,      11,      12,
      13,      14,      15,      16,      17,      18,
      19,      20,      21,      22,      23,      24,
      25,      26,      27,      28,      29,      30,
      31,      32,      33,      34,      35,      36,
      37,      38,      39,      40,      41,      42,
      43,      44,      45,      46,      47,      48,
      49,      50,      51,      52,      53,      54,
      55,      56,      57,      58,      59,      60,
      61,      62,      63,      64,      65,      66,
      67,      68,      69,      70,      71,      72,
      73,      74,      75,      76,      77,      78,
      79,      80,      81,      82,      83,      84,
      85,      86,      87,      88,      89,      90,
      91,      92,      93,      94,      95,      96,
      97,      98,      99,     100,     101,     102,
     103,     104,     105,     106,     107,     108,
     109,     110,     111,     112,     113,     114,
     115,     116,     117,     118,     119,     120,
** ... 139 like lines cut
*NSET, NSET=NS2
     731,     732,     733,     734,     735,     736,
     737,     738,     739,     740,     741,     742,
     743,     744,     745,     746,     747,     748,
     749,     750,     751,     752,     753,     754,
     755,     756,     757,     758,     759,     760,
     761,     762,     763,     764,     765,     766,
     767,     768,     769,     770,     771,     772,
     773,     774,     775,     776,     777,     778,
     779,     780,     781,     782,     783,     784,
     785,     786,     787,    1516,    1517,    1518,
    1519,    1520,    1521,    1522,    1523,    1524,
    1525,    1526,    1527,    1528,    1529,    1530,
    1531,    1532,    1533,    1534,    1535,    1536,
    1537,    1538,    1539,    1540,    1541,    1542,
    1543,    1544,    1545,    1546,    1547,    1548,
    1549,    1550,    1551,    1552,    1553,    1554,
    1555,    1556,
**
********************************** S I D E S E T S **********************************
*ELSET, ELSET=SS1_S2
     389,     390,     391,     392,     393,     394,     395,     396,     397,     398,
     399,     400,     401,     402,     403,     404,     405,     406,     407,     408,
     409,     410,     411,     412,     413,     414,     415,     416,     417,     418,
     419,     420,     421,     422,     423,     424,     425,     426,     427,     428,
     429,     430,     431,     432,     433,     434,     435,     436,     437,     438,
     439,     440,     441,     442,     443,     444,     445,     446,     447,     448,
     449,     450,     451,     452,     453,     454,     455,     456,     457,     458,
     459,     460,     461,     462,     463,     464,     465,     466,     467,     468,
     469,     470,     471,     472,     473,     474,     475,     476,     477,     478,
     479,     480,     481,     482,     483,     484,     485,     486,     487,     488,
     489,     490,     491,     492,     493,     494,     495,     496,     497,     498,
     499,     500,     501,     502,     503,     504,     505,     506,     507,     508,
     509,     510,     511,     512,     513,     514,     515,     516,     517,     518,
     519,     520,     521,     522,     523,     524,     525,     526,     527,     528,
     529,     530,     531,     532,     533,     534,     535,     536,     537,     538,
     539,     540,     541,     542,     543,     544,     545,     546,     547,     548,
     549,     550,     551,     552,     553,     554,     555,     556,     557,     558,
     559,     560,     561,     562,     563,     564,     565,     566,     567,     568,
     569,     570,     571,     572,     573,     574,     575,     576,     577,     578,
     579,     580,     581,     582,     583,     584,     585,     586,     587,     588,
** ... 28 like lines cut
*SURFACE, NAME=SS1
SS1_S2, S2
*ELSET, ELSET=SS2_S2
     629,     630,     631,     632,     633,     634,     635,     636,     637,     638,
     639,     640,     641,     642,     643,     644,     645,     646,     647,     648,
     649,     650,     651,     652,     653,     654,     655,     656,     657,     658,
     659,     660,     661,     662,     663,     664,     665,     666,     667,     668,
     669,     670,     671,     672,     673,     674,     675,     676,    1153,    1154,
    1155,    1156,    1157,    1158,    1159,    1160,    1161,    1162,    1163,    1164,
    1165,    1166,    1167,    1168,    1169,    1170,    1171,    1172,    1173,    1174,
    1175,    1176,    1177,    1178,    1179,    1180,    1181,    1182,    1183,    1184,
    1185,    1186,    1187,    1188,    1189,    1190,    1191,    1192,    1193,    1194,
    1195,    1196,    1197,    1198,    1199,    1200
*SURFACE, NAME=SS2
SS2_S2, S2
**
********************************** P R O P E R T I E S ************************
*SOLID SECTION, ELSET=PART-DEFAULT_1_EB1, MATERIAL=DEFAULT-STEEL
*SOLID SECTION, ELSET=EB2, MATERIAL=Default-Steel
*SOLID SECTION, ELSET=EB3, MATERIAL=Default-Steel
**
*END PART
**
**
**
********************************** E N D   P A R T S **********************************
**
**
********************************** A S S E M B L Y ************************************
**
*ASSEMBLY, NAME=ASSEMBLY1
**
*INSTANCE, NAME=Part-Default_1, PART=Part-Default
*END INSTANCE
**
*END ASSEMBLY
**
**
**
*MATERIAL, NAME = DEFAULT-STEEL
*ELASTIC, TYPE=ISOTROPIC
2.068000e+05, 2.900000e-01
*DENSITY
7.000000e-06
*CONDUCTIVITY,TYPE=ISO
4.500000e-02
*SPECIFIC HEAT
5.000000e+02
**
*MATERIAL, NAME = Default-Steel
*ELASTIC, TYPE=ISOTROPIC
2.068000e+05, 2.900000e-01
*DENSITY
7.000000e-06
*CONDUCTIVITY,TYPE=ISO
4.500000e-02
*SPECIFIC HEAT
5.000000e+02
**
**
************************************** H I S T O R Y *************************************
**
*PREPRINT
**
**************************************** S T E P 1 ***************************************
*STEP,INC=100,NAME=DEFAULT SET
**
*STATIC
1, 1, 1e-05, 1
**
**
**
**
*END STEP
