*HEADING
cubit(/Users/chovey/autotwin/mesh/tests/files/two_spheres.inp): 11/29/2022: 09:5
version: 16.08.0
**
********************************** P A R T S **********************************
*PART, NAME=Part-Default
**
********************************** N O D E S **********************************
*NODE, NSET=ALLNODES
       1,   -9.028488e+00,   -3.037577e+00,   -3.037825e+00
       2,   -9.324286e+00,   -1.839023e+00,   -3.325111e+00
       3,   -9.817032e+00,   -1.760263e+00,   -1.760359e+00
       4,   -9.321927e+00,   -3.324073e+00,   -1.838685e+00
       5,   -8.219188e+00,   -4.125565e+00,   -4.125752e+00
       6,   -8.658855e+00,   -1.854717e+00,   -4.606972e+00
       7,   -9.477543e+00,    7.967441e-05,   -3.431532e+00
       8,   -9.966102e+00,    8.333147e-05,   -1.790124e+00
       9,   -9.964643e+00,   -1.789775e+00,    5.244037e-05
      10,   -9.475683e+00,   -3.430698e+00,    2.532700e-05
      11,   -8.657598e+00,   -4.606115e+00,   -1.854628e+00
      12,   -8.699636e+00,   -4.772984e+00,   -4.310313e-05
      13,   -7.409749e+00,   -5.730192e+00,   -3.553005e+00
      14,   -7.670573e+00,   -6.154202e+00,   -2.033757e+00
      15,   -6.408235e+00,   -6.408043e+00,   -4.360432e+00
      16,   -7.062768e+00,   -4.947154e+00,   -4.947458e+00
      17,   -7.984625e+00,   -6.088553e+00,   -6.109753e-05
      18,   -6.765179e+00,   -6.765059e+00,   -2.714007e+00
      19,   -7.003479e+00,   -7.003375e+00,   -1.199276e+00
      20,   -6.155228e+00,   -7.671576e+00,   -2.034026e+00
** ... 1457 like lines cut
**
********************************** E L E M E N T S ****************************
*ELEMENT, TYPE=C3D8R, ELSET=EB1
       1,     782,     783,     784,     773,     781,     785,     437,     779
       2,     783,     789,     791,     784,     785,     788,     792,     437
       3,     773,     784,     794,     774,     779,     437,     438,     439
       4,     781,     785,     437,     779,     786,     787,     440,     441
       5,     785,     788,     792,     437,     787,     790,     442,     440
       6,     780,     781,     779,     772,     822,     786,     441,     778
       7,     779,     437,     438,     439,     441,     440,     443,     444
       8,     439,     438,     449,     802,     444,     443,     446,     447
       9,     438,     450,     811,     449,     443,     445,     448,     446
      10,     771,     439,     802,     776,     777,     444,     447,     823
      11,     802,     449,     805,     803,     447,     446,     807,     806
      12,     774,     794,     798,     799,     439,     438,     449,     802
      13,     794,     793,     797,     798,     438,     450,     811,     449
      14,     770,     774,     799,     775,     771,     439,     802,     776
      15,     799,     798,     800,     801,     802,     449,     805,     803
      16,     798,     797,     809,     800,     449,     811,     808,     805
      17,     449,     811,     808,     805,     446,     448,     810,     807
      18,     811,     812,     813,     808,     448,     816,     825,     810
      19,     450,     815,     812,     811,     445,     817,     816,     448
      20,     792,     818,     815,     450,     442,     819,     817,     445
** ... 132 like lines cut
*ELEMENT, TYPE=C3D8R, ELSET=EB2
     153,     510,     505,     565,     567,     508,     503,     319,     523
     154,     505,     506,     563,     565,     503,     502,     320,     319
     155,     567,     565,     566,     568,     523,     319,     321,     524
     156,     508,     503,     319,     523,     511,     322,     323,     324
     157,     503,     502,     320,     319,     322,     325,     326,     323
     158,     512,     508,     523,     518,     513,     511,     324,     517
     159,     523,     319,     321,     524,     324,     323,     327,     328
     160,     507,     497,     503,     508,     509,     498,     322,     511
     161,     511,     322,     323,     324,     329,     725,     716,     712
     162,     322,     325,     326,     323,     725,     726,     727,     716
     163,     513,     511,     324,     517,     466,     329,     712,     330
     164,     324,     323,     327,     328,     712,     716,     717,     713
     165,     509,     498,     322,     511,     473,     331,     725,     329
     166,     329,     725,     716,     712,     723,     724,     722,     715
     167,     466,     329,     712,     330,     332,     723,     715,     333
     168,     473,     331,     725,     329,     334,     335,     724,     723
     169,     331,     336,     726,     725,     335,     337,     728,     724
     170,     465,     473,     329,     466,     468,     334,     723,     332
     171,     472,     480,     331,     473,     474,     338,     335,     334
     172,     334,     335,     724,     723,     339,     340,     729,     765
** ... 1028 like lines cut
**
********************************** N O D E S E T S **********************************
*NSET, NSET=NS1
       1,       2,       3,       4,       5,       6,
       7,       8,       9,      10,      11,      12,
      13,      14,      15,      16,      17,      18,
      19,      20,      21,      22,      23,      24,
      25,      26,      27,      28,      29,      30,
      31,      32,      33,      34,      35,      36,
      37,      38,      39,      40,      41,      42,
      43,      44,      45,      46,      47,      48,
      49,      50,      51,      52,      53,      54,
      55,      56,      57,      58,      59,      60,
      61,      62,      63,      64,      65,      66,
      67,      68,      69,      70,      71,      72,
      73,      74,      75,      76,      77,      78,
      79,      80,      81,      82,      83,      84,
      85,      86,      87,      88,      89,      90,
      91,      92,      93,      94,      95,      96,
      97,      98,      99,     100,     101,     102,
     103,     104,     105,     106,     107,     108,
     109,     110,     111,     112,     113,     114,
     115,     116,     117,     118,     119,     120,
** ... 61 like lines cut
*NSET, NSET=NS2
     262,     263,     264,     265,     266,     267,
     268,     269,     270,     271,     272,     273,
     274,     275,     276,     277,     278,     279,
     280,     281,     282,     283,     284,     285,
     286,     287,     288,     289,     290,     291,
     292,     293,     294,     295,     296,     297,
     298,     299,     300,     301,     302,     303,
     304,     305,     306,     307,     308,     309,
     310,     311,     312,     313,     314,     315,
     316,     317,     318,    1047,    1048,    1049,
    1050,    1051,    1052,    1053,    1054,    1055,
    1056,    1057,    1058,    1059,    1060,    1061,
    1062,    1063,    1064,    1065,    1066,    1067,
    1068,    1069,    1070,    1071,    1072,    1073,
    1074,    1075,    1076,    1077,    1078,    1079,
    1080,    1081,    1082,    1083,    1084,    1085,
    1086,    1087,
**
********************************** S I D E S E T S **********************************
*ELSET, ELSET=SS1_S2
     389,     390,     391,     392,     393,     394,     395,     396,     397,     398,
     399,     400,     401,     402,     403,     404,     405,     406,     407,     408,
     409,     410,     411,     412,     413,     414,     415,     416,     417,     418,
     419,     420,     421,     422,     423,     424,     425,     426,     427,     428,
     429,     430,     431,     432,     433,     434,     435,     436,     437,     438,
     439,     440,     441,     442,     443,     444,     445,     446,     447,     448,
     449,     450,     451,     452,     453,     454,     455,     456,     457,     458,
     459,     460,     461,     462,     463,     464,     465,     466,     467,     468,
     469,     470,     471,     472,     473,     474,     475,     476,     477,     478,
     479,     480,     481,     482,     483,     484,     485,     486,     487,     488,
     489,     490,     491,     492,     493,     494,     495,     496,     497,     498,
     499,     500,     501,     502,     503,     504,     505,     506,     507,     508,
     509,     510,     511,     512,     513,     514,     515,     516,     517,     518,
     519,     520,     521,     522,     523,     524,     525,     526,     527,     528,
     529,     530,     531,     532,     533,     534,     535,     536,     537,     538,
     539,     540,     541,     542,     543,     544,     545,     546,     547,     548,
     549,     550,     551,     552,     553,     554,     555,     556,     557,     558,
     559,     560,     561,     562,     563,     564,     565,     566,     567,     568,
     569,     570,     571,     572,     573,     574,     575,     576,     577,     578,
     579,     580,     581,     582,     583,     584,     585,     586,     587,     588,
** ... 28 like lines cut
*SURFACE, NAME=SS1
SS1_S2, S2
*ELSET, ELSET=SS2_S2
     629,     630,     631,     632,     633,     634,     635,     636,     637,     638,
     639,     640,     641,     642,     643,     644,     645,     646,     647,     648,
     649,     650,     651,     652,     653,     654,     655,     656,     657,     658,
     659,     660,     661,     662,     663,     664,     665,     666,     667,     668,
     669,     670,     671,     672,     673,     674,     675,     676,    1153,    1154,
    1155,    1156,    1157,    1158,    1159,    1160,    1161,    1162,    1163,    1164,
    1165,    1166,    1167,    1168,    1169,    1170,    1171,    1172,    1173,    1174,
    1175,    1176,    1177,    1178,    1179,    1180,    1181,    1182,    1183,    1184,
    1185,    1186,    1187,    1188,    1189,    1190,    1191,    1192,    1193,    1194,
    1195,    1196,    1197,    1198,    1199,    1200
*SURFACE, NAME=SS2
SS2_S2, S2
**
********************************** P R O P E R T I E S ************************
*SOLID SECTION, ELSET=EB1, MATERIAL=Default-Steel
*SOLID SECTION, ELSET=EB2, MATERIAL=Default-Steel
**
*END PART
**
**
**
********************************** E N D   P A R T S **********************************
**
**
********************************** A S S E M B L Y ************************************
**
*ASSEMBLY, NAME=ASSEMBLY1
**
*INSTANCE, NAME=Part-Default_1, PART=Part-Default
*END INSTANCE
**
*END ASSEMBLY
**
**
**
*MATERIAL, NAME = Default-Steel
*ELASTIC, TYPE=ISOTROPIC
2.068000e+05, 2.900000e-01
*DENSITY
7.000000e-06
*CONDUCTIVITY,TYPE=ISO
4.500000e-02
*SPECIFIC HEAT
5.000000e+02
**
**
************************************** H I S T O R Y *************************************
**
*PREPRINT
**
**************************************** S T E P 1 ***************************************
*STEP,INC=100,NAME=Default Set
**
*STATIC
1, 1, 1e-05, 1
**
**
**
**
*END STEP
